Version 4
SHEET 1 880 680
SYMBOL AutoGenerated\\OPA858 224 160 R0
SYMATTR InstName U1
